*KEYWORD
*MAT_3-PARAMETER_BARLAT_TITLE
STEEL_250_BH250
$      MID|       RO|        E|       PR|       HR|       P1|       P2|     ITER|
         1   7.85E-9   207000.      0.28       3.0      611.      0.17       0.0
$        M|      R00|      R45|      R90|     LCID|       E0|      SPI|       P3|
        6.      1.12      0.88      1.34       801        0.        0.        0.
$     AOPT|        C|        P|    VLCID|         |       PB|      HTA|      HTB|
       2.0        0.        0.                                                  
$                             |       A1|       A2|       A3|      HTC|      HTD|
                                      1.        0.        0.                    
$                             |       D1|       D2|       D3|         |   HTFLAG|
                                      0.        1.        0.                    
$  USRFAIL|
          
*MAT_PIECEWISE_LINEAR_PLASTICITY_TITLE
STEEL_420_EN10131_PLP
$      MID|       RO|        E|       PR|     SIGY|     ETAN|     FAIL|     TDEL|
         2    7.9E-9   207000.       0.3        0.        0.        0.        0.
$        C|        P|     LCSS|     LCSR|       VP|
        0.        0.      1001         0        1.
$     EPS1|     EPS2|     EPS3|     EPS4|     EPS5|     EPS6|     EPS7|     EPS8|
        0.        0.        0.        0.        0.        0.        0.        0.
$      ES1|      ES2|      ES3|      ES4|      ES5|      ES6|      ES7|      ES8|
        0.        0.        0.        0.        0.        0.        0.        0.
*MAT_PIECEWISE_LINEAR_PLASTICITY_TITLE
ALUMINIUM_AIRCRAFT_GRADE_PLP
$      MID|       RO|        E|       PR|     SIGY|     ETAN|     FAIL|     TDEL|
         3    2.7E-9    70000.      0.35        0.        0.        0.        0.
$        C|        P|     LCSS|     LCSR|       VP|
        0.        0.       901         0        1.
$     EPS1|     EPS2|     EPS3|     EPS4|     EPS5|     EPS6|     EPS7|     EPS8|
        0.        0.        0.        0.        0.        0.        0.        0.
$      ES1|      ES2|      ES3|      ES4|      ES5|      ES6|      ES7|      ES8|
        0.        0.        0.        0.        0.        0.        0.        0.
*MAT_RIGID_TITLE
RIGID_STEEL_47_z-free
$      MID|       RO|        E|       PR|        N|   COUPLE|        M| ALIAS_RE|
         5   7.85E-9   210000.       0.3        0.        0.        0.
$      CMO|     CON1|     CON2|
       1.0        4.        7.
$       A1|       A2|       A3|       V1|       V2|       V3|
        0.        0.        0.        0.        0.        0.
*MAT_RIGID_TITLE
RIGID_STEEL_57_x-free
$      MID|       RO|        E|       PR|        N|   COUPLE|        M| ALIAS_RE|
         6   7.85E-9   210000.       0.3        0.        0.        0.
$      CMO|     CON1|     CON2|
       1.0        5.        7.
$       A1|       A2|       A3|       V1|       V2|       V3|
        0.        0.        0.        0.        0.        0.
*MAT_RIGID_TITLE
RIGID_STEEL_67_y-free
$      MID|       RO|        E|       PR|        N|   COUPLE|        M| ALIAS_RE|
         7   7.85E-9   210000.       0.3        0.        0.        0.
$      CMO|     CON1|     CON2|
       1.0        6.        7.
$       A1|       A2|       A3|       V1|       V2|       V3|
        0.        0.        0.        0.        0.        0.
*MAT_RIGID_TITLE
RIGID_STEEL_77_fixed
$      MID|       RO|        E|       PR|        N|   COUPLE|        M| ALIAS_RE|
         8   7.85E-9   210000.       0.3        0.        0.        0.
$      CMO|     CON1|     CON2|
       1.0        7.        7.
$       A1|       A2|       A3|       V1|       V2|       V3|
        0.        0.        0.        0.        0.        0.
*DEFINE_CURVE_TITLE
STEEL_Barlat_CURVE
$     LCID|     SIDR|      SFA|      SFO|     OFFA|     OFFO|   DATTYP|    LCINT|
       801         0                                                            
$                 Ai|                 Oi|
                  0.              286.57
               0.002               294.4
               0.004              301.33
               0.006              307.56
               0.008              313.23
                0.01              318.44
               0.012              323.26
               0.014              327.75
               0.016              331.97
               0.018              335.93
                0.02              339.68
               0.022              343.24
               0.024              346.63
               0.026              349.86
               0.028              352.96
                0.03              355.92
               0.032              358.77
               0.034              361.51
               0.036              364.16
               0.038              366.72
$ ... 231 like lines cut
*DEFINE_CURVE_TITLE
ALUMINIUM_AIRCRAFT_GRADE_PLP
$     LCID|     SIDR|      SFA|      SFO|     OFFA|     OFFO|   DATTYP|    LCINT|
       901         0        1.        1.        0.        0.         0          
$                 Ai|                 Oi|
                  0.            172.9019
         1.022791E-5            173.5055
         2.039557E-5            174.1056
         3.241495E-5             174.712
         4.410193E-5            175.3015
         5.591325E-5            175.8974
         6.785157E-5            176.4996
         8.195548E-5            177.1084
         9.570024E-5            177.7017
        0.0001095977            178.3016
        0.0001263609            178.9082
        0.0001427574            179.5016
        0.0001593423            180.1017
        0.0001786398            180.7089
        0.0001975589            181.3041
        0.0002167033            181.9064
        0.0002395782             182.516
        0.0002620677            183.1153
        0.0002885504            183.7221
        0.0003146712            184.3205
$ ... 80 like lines cut
*DEFINE_CURVE_TITLE
STEEL_420_EN10131_PLP
$     LCID|     SIDR|      SFA|      SFO|     OFFA|     OFFO|   DATTYP|    LCINT|
      1001         0        1.        1.        0.        0.         0          
$                 Ai|                 Oi|
                  0.                381.
         6.106902E-5             385.167
        0.0001253643             389.076
          0.00019343            392.7357
        0.0002658102            396.1544
        0.0003430492            399.3407
         0.000425691            402.3031
        0.0005142799            405.0501
        0.0006093599              407.59
        0.0007114752            409.9315
          0.00082117             412.083
        0.0009389884            414.0531
         0.001065475            415.8501
         0.001201173            417.4826
         0.001346627             418.959
         0.001502381            420.2879
          0.00166898            421.4778
         0.001846967             422.537
         0.002036887            423.4742
         0.002239284            424.2978
$ ... 80 like lines cut
*END
